PHYSICAL_PROBLEM= EULER
MATH_PROBLEM= DIRECT
RESTART_SOL= NO
SYSTEM_MEASUREMENTS= SI
MACH_NUMBER= 0.500000
FREESTREAM_PRESSURE= 57183.208577
FREESTREAM_TEMPERATURE= 258.431968
REF_DIMENSIONALIZATION= DIMENSIONAL
MARKER_EULER= ( ( 9, 10, 11, 12 ) )
MARKER_INLET= ( 13, 942.985700, 232270.000000, 1.0, 0.0, 0.0 )
MARKER_FAR= ( ( 6, 7, 8 ) )
MARKER_SYM= ( ( 1, 2 ) )
MARKER_OUTLET= ( 3, 57183.208577,  4, 57183.208577,  5, 57183.208577)
NUM_METHOD_GRAD= WEIGHTED_LEAST_SQUARES
CFL_NUMBER= 25
CFL_ADAPT= NO
MAX_DELTA_TIME= 1E6
EXT_ITER= 500
LINEAR_SOLVER= FGMRES
LINEAR_SOLVER_ERROR= 1E-6
LINEAR_SOLVER_ITER= 3
REF_ELEM_LENGTH= 0.005 
LIMITER_COEFF= 0.3
SHARP_EDGES_COEFF= 3.0
LIMITER_ITER= 150
REF_SHARP_EDGES= 3.0
SENS_REMOVE_SHARP= YES
MGLEVEL= 3
MGCYCLE= V_CYCLE
MG_PRE_SMOOTH= ( 1, 2, 3, 3 )
MG_POST_SMOOTH= ( 0, 0, 0, 0 )
MG_CORRECTION_SMOOTH= ( 0, 0, 0, 0 )
MG_DAMP_RESTRICTION= 0.75
MG_DAMP_PROLONGATION= 0.75
CONV_NUM_METHOD_FLOW= ROE
SPATIAL_ORDER_FLOW= 2ND_ORDER_LIMITER
SLOPE_LIMITER_FLOW= VENKATAKRISHNAN
AD_COEFF_FLOW= ( 0.15, 0.5, 0.05 )
TIME_DISCRE_FLOW= EULER_IMPLICIT
CONV_CRITERIA= RESIDUAL
RESIDUAL_REDUCTION= 3
RESIDUAL_MINVAL= -12
STARTCONV_ITER= 25
MESH_FILENAME= blabla.su2
OUTPUT_FORMAT= TECPLOT
CONV_FILENAME= history
RESTART_FLOW_FILENAME= blabla.dat
WRT_SOL_FREQ= 1000
WRT_CON_FREQ= 1
NUMBER_PART= 1
RELAXATION_LOCAL= YES
CFL_ADAPT_LOCAL= YES
HARD_LIMITING_PARAM= (0.15, 1e-5)
CFL_ADAPT_LOCAL_PARAM= ( 0.1, 1.5, 1e-12, 30.0 )
